Version 4
SHEET 1 1088 1120
WIRE -1616 -800 -1616 -832
WIRE -2272 -784 -2272 -832
WIRE -2272 -784 -2368 -784
WIRE -2176 -784 -2272 -784
WIRE -2368 -752 -2368 -784
WIRE -2176 -752 -2176 -784
WIRE -1664 -720 -1840 -720
WIRE -2368 -624 -2368 -672
WIRE -2176 -624 -2176 -672
WIRE -2272 -576 -2304 -576
WIRE -2240 -576 -2272 -576
WIRE -752 -576 -752 -688
WIRE -1616 -560 -1616 -704
WIRE -2368 -512 -2368 -528
WIRE -2272 -512 -2272 -576
WIRE -2272 -512 -2368 -512
WIRE -960 -496 -1040 -496
WIRE -800 -496 -880 -496
WIRE -2368 -448 -2368 -512
WIRE -1424 -448 -1424 -528
WIRE -2176 -432 -2176 -528
WIRE -1840 -432 -1840 -720
WIRE -1840 -432 -2176 -432
WIRE -1616 -400 -1616 -480
WIRE -1488 -400 -1616 -400
WIRE -752 -400 -752 -480
WIRE -560 -400 -752 -400
WIRE -464 -400 -560 -400
WIRE -928 -384 -928 -416
WIRE -752 -336 -752 -400
WIRE -2176 -304 -2176 -432
WIRE -2128 -304 -2176 -304
WIRE -1424 -272 -1424 -352
WIRE -1040 -272 -1040 -496
WIRE -1040 -272 -1424 -272
WIRE -2368 -256 -2368 -368
WIRE -2176 -256 -2176 -304
WIRE -928 -256 -928 -304
WIRE -800 -256 -928 -256
WIRE -1152 -224 -1264 -224
WIRE -1056 -224 -1152 -224
WIRE -2416 -208 -2672 -208
WIRE -1920 -208 -2128 -208
WIRE -1872 -208 -1920 -208
WIRE -1744 -208 -1792 -208
WIRE -1616 -192 -1616 -400
WIRE -1424 -192 -1424 -272
WIRE -1152 -192 -1152 -224
WIRE -928 -192 -928 -256
WIRE -2672 -160 -2672 -208
WIRE -1920 -160 -1920 -208
WIRE -1360 -144 -1552 -144
WIRE -1264 -144 -1264 -224
WIRE -1264 -144 -1360 -144
WIRE -1216 -144 -1264 -144
WIRE -752 -144 -752 -240
WIRE -752 -144 -864 -144
WIRE -2400 -96 -2400 -160
WIRE -2272 -96 -2400 -96
WIRE -2144 -96 -2144 -160
WIRE -2144 -96 -2272 -96
WIRE -752 -96 -752 -144
WIRE -1616 -64 -1616 -96
WIRE -1424 -64 -1424 -96
WIRE -1152 -64 -1152 -96
WIRE -2672 -48 -2672 -80
WIRE -2032 -32 -2032 -80
WIRE -1920 -32 -1920 -80
WIRE -2272 48 -2272 -96
WIRE -1616 48 -1616 16
WIRE -1424 48 -1424 16
WIRE -1424 48 -1616 48
WIRE -1264 48 -1424 48
WIRE -1152 48 -1152 16
WIRE -1152 48 -1264 48
WIRE -928 48 -928 -96
WIRE -752 48 -752 -16
WIRE -752 48 -928 48
WIRE -1264 80 -1264 48
WIRE -752 80 -752 48
WIRE -2176 128 -2208 128
WIRE -1744 176 -1744 -208
WIRE -560 176 -560 -400
WIRE -560 176 -1744 176
WIRE -2176 192 -2176 128
WIRE -848 256 -896 256
WIRE -752 256 -784 256
WIRE -720 256 -752 256
WIRE -624 256 -640 256
WIRE -2272 304 -2272 208
WIRE -2176 304 -2176 272
WIRE -2176 304 -2272 304
WIRE -2272 384 -2272 304
WIRE -752 400 -752 256
WIRE -752 400 -768 400
WIRE -1056 416 -1056 -224
WIRE -1024 416 -1056 416
WIRE -896 416 -896 256
WIRE -896 416 -944 416
WIRE -832 416 -896 416
WIRE -752 432 -768 432
WIRE -720 432 -752 432
WIRE -560 432 -560 176
WIRE -560 432 -640 432
WIRE -752 496 -752 432
WIRE -752 576 -752 560
FLAG -2160 -992 0
FLAG -2160 -1072 HT
IOPIN -2160 -1072 Out
FLAG -2032 -992 0
FLAG -2032 -1072 VEE
IOPIN -2032 -1072 Out
FLAG -1616 -832 HT
IOPIN -1616 -832 In
FLAG -1904 -992 0
FLAG -1904 -1072 VCC
IOPIN -1904 -1072 Out
FLAG -800 448 VEE
FLAG -800 384 VCC
FLAG -624 256 0
FLAG -752 576 0
FLAG -752 80 VEE
IOPIN -752 80 In
FLAG -928 -416 0
FLAG -752 -688 VCC
IOPIN -752 -688 In
FLAG -464 -400 out
IOPIN -464 -400 Out
FLAG -1264 80 VEE
IOPIN -1264 80 In
FLAG -2672 -48 0
FLAG -2272 -832 HT
IOPIN -2272 -832 In
FLAG -2272 384 VEE
IOPIN -2272 384 In
FLAG -1920 -32 0
FLAG -2128 -304 Va2
IOPIN -2128 -304 Out
FLAG -336 -288 out
IOPIN -336 -288 Out
FLAG -336 -208 0
FLAG -1424 -528 VCC
IOPIN -1424 -528 In
FLAG -2032 -32 0
SYMBOL voltage -2160 -1088 R0
SYMATTR InstName V1
SYMATTR Value 60
SYMBOL voltage -2032 -1088 R0
SYMATTR InstName V2
SYMATTR Value -10
SYMBOL npn -1552 -192 M0
SYMATTR InstName Q1
SYMATTR Value BC547C
SYMBOL res -1632 -576 R0
SYMATTR InstName R1
SYMATTR Value 2.61k
SYMBOL Opamps/LT1057 -800 352 M0
SYMATTR InstName U1
SYMBOL voltage -1904 -1088 R0
SYMATTR InstName V3
SYMATTR Value 10
SYMBOL res -736 272 R270
WINDOW 0 32 56 VTop 2
WINDOW 3 0 56 VBottom 2
SYMATTR InstName R2
SYMATTR Value 1Meg
SYMBOL res -736 448 R270
WINDOW 0 32 56 VTop 2
WINDOW 3 0 56 VBottom 2
SYMATTR InstName R3
SYMATTR Value 1Meg
SYMBOL cap -784 240 R90
WINDOW 0 0 32 VBottom 2
WINDOW 3 32 32 VTop 2
SYMATTR InstName C1
SYMATTR Value 1µ
SYMBOL cap -736 560 R180
WINDOW 0 24 56 Left 2
WINDOW 3 24 8 Left 2
SYMATTR InstName C2
SYMATTR Value 1µ
SYMBOL npn -864 -192 M0
SYMATTR InstName Q2
SYMATTR Value BC547C
SYMBOL nmos -800 -336 R0
SYMATTR InstName M1
SYMATTR Value IRF540
SYMATTR Prefix X
SYMBOL res -944 -400 R0
SYMATTR InstName R4
SYMATTR Value 2.2k
SYMBOL res -768 -112 R0
SYMATTR InstName R5
SYMATTR Value 2.4
SYMBOL nmos -800 -576 R0
SYMATTR InstName M2
SYMATTR Value IRF540
SYMATTR Prefix X
SYMBOL npn -1216 -192 R0
SYMATTR InstName Q3
SYMATTR Value BC547C
SYMBOL res -928 400 R90
WINDOW 0 0 56 VBottom 2
WINDOW 3 32 56 VTop 2
SYMATTR InstName R6
SYMATTR Value 549
SYMBOL Misc/triode -2368 -208 R0
SYMATTR InstName U2
SYMATTR Value ECC88
SYMBOL Misc/triode -2176 -208 M0
SYMATTR InstName U3
SYMATTR Value ECC88
SYMBOL voltage -2672 -176 R0
SYMATTR InstName V4
SYMATTR Value SINE(0 0.4 {Fin})
SYMATTR Value2 AC 1
SYMBOL res -2384 -464 R0
SYMATTR InstName R9
SYMATTR Value 16k
SYMBOL res -1936 -176 R0
SYMATTR InstName R10
SYMATTR Value 2.7k
SYMBOL pnp -2304 -528 R180
SYMATTR InstName Q6
SYMATTR Value BC556A
SYMBOL pnp -2240 -528 M180
SYMATTR InstName Q7
SYMATTR Value BC556A
SYMBOL res -2384 -768 R0
SYMATTR InstName R11
SYMATTR Value 120
SYMBOL res -2192 -768 R0
SYMATTR InstName R12
SYMATTR Value 120
SYMBOL res -1776 -224 R90
WINDOW 0 0 56 VBottom 2
WINDOW 3 32 56 VTop 2
SYMATTR InstName R13
SYMATTR Value 10k
SYMBOL res -1632 -80 R0
SYMATTR InstName R14
SYMATTR Value 120
SYMBOL res -1168 -80 R0
SYMATTR InstName R15
SYMATTR Value 120
SYMBOL res -352 -304 R0
SYMATTR InstName R16
SYMATTR Value {Rload}
SYMBOL nmos -1664 -800 R0
SYMATTR InstName M3
SYMATTR Value 2N7002
SYMBOL npn -1360 -192 M0
SYMATTR InstName Q8
SYMATTR Value BC547C
SYMBOL res -1440 -80 R0
SYMATTR InstName R17
SYMATTR Value 120
SYMBOL npn -1488 -448 R0
SYMATTR InstName Q9
SYMATTR Value BC547C
SYMBOL Vreg/lm334 -2272 128 R0
SYMATTR InstName U4
SYMBOL res -2192 176 R0
SYMATTR InstName R7
SYMATTR Value {Rset}
SYMBOL res -864 -512 R90
WINDOW 0 0 56 VBottom 2
WINDOW 3 32 56 VTop 2
SYMATTR InstName R8
SYMATTR Value 100
SYMBOL res -2048 -176 R0
SYMATTR InstName R18
SYMATTR Value 680
TEXT -720 -176 Left 2 ;250mA
TEXT -2640 -1168 Left 2 !.inc ECC88.inc\n.inc sihf540.lib\n.inc irf510.lib\n.inc irf520.lib\n.inc irf530.lib\n.inc stp140nf75.lib\n.options plotwinsize=0\n.option numdgt=7\n.param Fin = 1k\n.tran 0 {10/Fin} 0 1us\n.four {Fin} V(out)
TEXT -248 -320 Left 2 !.step param Rload list 18 32 250\n*.param Rload = 18\n.meas tran S PP V(out)\n.meas tran Mag param S/2
TEXT -2096 336 Left 2 !.param Iset = 2mA\n.param Rset = (273.15+25)*227e-6/Iset\n.meas tran Rs param Rset
TEXT -2128 -56 Left 2 ;21dB
TEXT -1888 -56 Left 2 ;12dB
