Version 4
SHEET 1 2384 1120
WIRE 352 -864 352 -992
WIRE 304 -784 80 -784
WIRE 352 -688 352 -768
WIRE 80 -624 80 -784
WIRE 352 -560 352 -608
WIRE 544 -560 352 -560
WIRE 352 -528 352 -560
WIRE 352 -384 352 -448
WIRE 352 -384 192 -384
WIRE 352 -368 352 -384
WIRE 80 -336 80 -544
WIRE 80 -336 -112 -336
WIRE 128 -336 80 -336
WIRE 304 -288 192 -288
WIRE -112 -272 -112 -336
WIRE 192 -240 192 -288
WIRE -112 -160 -112 -192
WIRE 192 -128 192 -160
WIRE 352 -128 352 -272
WIRE 352 -128 192 -128
WIRE 352 -96 352 -128
FLAG -224 -816 0
FLAG -224 -896 VEE
IOPIN -224 -896 Out
FLAG -96 -816 0
FLAG -96 -896 VCC
IOPIN -96 -896 Out
FLAG 688 -416 out
IOPIN 688 -416 Out
FLAG 688 -336 0
FLAG -112 -160 0
FLAG 544 -560 out
IOPIN 544 -560 Out
FLAG 352 -992 VCC
IOPIN 352 -992 In
FLAG 352 -96 VEE
IOPIN 352 -96 In
SYMBOL voltage -224 -912 R0
SYMATTR InstName V2
SYMATTR Value -10
SYMBOL voltage -96 -912 R0
SYMATTR InstName V3
SYMATTR Value 10
SYMBOL res 672 -432 R0
SYMATTR InstName R16
SYMATTR Value {Rload}
SYMBOL voltage -112 -288 R0
SYMATTR InstName V5
SYMATTR Value SINE({off} 1.4 {Fin})
SYMATTR Value2 AC 1
SYMBOL nmos 304 -864 R0
SYMATTR InstName M1
SYMATTR Value IRF540
SYMATTR Prefix X
SYMBOL nmos 304 -368 R0
SYMATTR InstName M2
SYMATTR Value IRF540
SYMATTR Prefix X
SYMBOL res 336 -704 R0
SYMATTR InstName R12
SYMATTR Value 1
SYMBOL res 336 -544 R0
SYMATTR InstName R13
SYMATTR Value 1.4
SYMBOL pnp 128 -288 M180
SYMATTR InstName Q11
SYMATTR Value BC556B
SYMBOL res 176 -256 R0
SYMATTR InstName R14
SYMATTR Value 1k
SYMBOL voltage 80 -640 R0
SYMATTR InstName V1
SYMATTR Value {Vbias}
TEXT -288 -1264 Left 2 !.inc ECC88.inc\n.inc sihf540.lib\n.inc sihf9540.lib\n.inc irf510.lib\n.inc sihf9510.lib\n.options plotwinsize=0\n.option numdgt=7\n.param Fin = 1k\n.tran 0 {10/Fin} 0 1us\n.four {Fin} V(out)
TEXT 536 -280 Left 2 !*.step param Rload list 18 32 250\n.param Rload = 18\n.param Vbias = 4.6\n.param off = -789.23mV\n*.step param Vbias 1mV 100mV 10mV\n.meas tran Ir12_pp pp I(R12)\n.meas tran Ir13_pp pp I(R13)
