Version 4
SHEET 1 2244 1120
WIRE 432 -1216 432 -1248
WIRE 432 -1216 288 -1216
WIRE 592 -1216 432 -1216
WIRE 288 -1184 288 -1216
WIRE 592 -1184 592 -1216
WIRE 288 -1040 288 -1104
WIRE 592 -1040 592 -1104
WIRE 432 -992 352 -992
WIRE 528 -992 432 -992
WIRE 928 -960 928 -1152
WIRE 288 -912 288 -944
WIRE 432 -912 432 -992
WIRE 432 -912 288 -912
WIRE 592 -912 592 -944
WIRE 864 -912 592 -912
WIRE 592 -880 592 -912
WIRE 288 -832 288 -912
WIRE 384 -752 352 -752
WIRE 592 -752 592 -800
WIRE 528 -704 480 -704
WIRE 384 -688 384 -752
WIRE 928 -672 928 -864
WIRE 592 -624 592 -656
WIRE 288 -576 288 -672
WIRE 384 -576 384 -608
WIRE 384 -576 288 -576
WIRE 480 -544 480 -704
WIRE 480 -544 16 -544
WIRE 928 -544 928 -592
WIRE 1120 -544 928 -544
WIRE 1536 -544 1440 -544
WIRE 928 -512 928 -544
WIRE 16 -480 16 -544
WIRE 592 -448 592 -480
WIRE 480 -400 480 -544
WIRE 528 -400 480 -400
WIRE 16 -368 16 -400
WIRE 592 -304 592 -352
WIRE 928 -240 928 -432
WIRE 288 -192 288 -576
WIRE 432 -192 288 -192
WIRE 592 -192 592 -224
WIRE 864 -192 592 -192
WIRE 288 -160 288 -192
WIRE 592 -160 592 -192
WIRE 432 -112 432 -192
WIRE 432 -112 352 -112
WIRE 528 -112 432 -112
WIRE 288 -16 288 -64
WIRE 592 -16 592 -64
WIRE 928 64 928 -144
WIRE 288 96 288 64
WIRE 432 96 288 96
WIRE 592 96 592 64
WIRE 592 96 432 96
WIRE 432 128 432 96
FLAG -336 -880 0
FLAG -336 -960 VEE
IOPIN -336 -960 Out
FLAG -208 -880 0
FLAG -208 -960 VCC
IOPIN -208 -960 Out
FLAG 928 64 VEE
IOPIN 928 64 In
FLAG 928 -1152 VCC
IOPIN 928 -1152 In
FLAG 1120 -544 out
IOPIN 1120 -544 Out
FLAG 1248 -336 out
IOPIN 1248 -336 Out
FLAG 1248 -256 0
FLAG 16 -368 0
FLAG 592 -624 VEE
IOPIN 592 -624 In
FLAG 592 -480 VCC
IOPIN 592 -480 In
FLAG 432 -1248 VCC
IOPIN 432 -1248 In
FLAG 432 128 VEE
IOPIN 432 128 In
FLAG 1536 -464 0
FLAG 1376 -544 out
IOPIN 1376 -544 Out
SYMBOL voltage -336 -976 R0
SYMATTR InstName V2
SYMATTR Value -10
SYMBOL voltage -208 -976 R0
SYMATTR InstName V3
SYMATTR Value 10
SYMBOL res 1232 -352 R0
SYMATTR InstName R16
SYMATTR Value {Rload}
SYMBOL voltage 16 -496 R0
SYMATTR InstName V5
SYMATTR Value SINE(0 1.4 {Fin})
SYMATTR Value2 AC 1
SYMBOL res 912 -688 R0
SYMATTR InstName R1
SYMATTR Value 0.22
SYMBOL res 912 -528 R0
SYMATTR InstName R2
SYMATTR Value 0.22
SYMBOL npn 528 -448 R0
SYMATTR InstName Q1
SYMATTR Value BC547C
SYMBOL pnp 528 -656 M180
SYMATTR InstName Q2
SYMATTR Value BC557C
SYMBOL npn 528 -160 R0
SYMATTR InstName Q3
SYMATTR Value BC547C
SYMBOL npn 352 -160 M0
SYMATTR InstName Q4
SYMATTR Value BC547C
SYMBOL res 576 -320 R0
SYMATTR InstName R3
SYMATTR Value {Rbias}
SYMBOL res 576 -896 R0
SYMATTR InstName R4
SYMATTR Value {Rbias}
SYMBOL pnp 528 -944 M180
SYMATTR InstName Q5
SYMATTR Value BC557C
SYMBOL pnp 352 -944 R180
SYMATTR InstName Q6
SYMATTR Value BC557C
SYMBOL res 272 -1200 R0
SYMATTR InstName R7
SYMATTR Value 120
SYMBOL res 576 -1200 R0
SYMATTR InstName R8
SYMATTR Value 120
SYMBOL res 272 -32 R0
SYMATTR InstName R9
SYMATTR Value 120
SYMBOL res 576 -32 R0
SYMATTR InstName R10
SYMATTR Value 120
SYMBOL Vreg/lm334 288 -752 R0
SYMATTR InstName U1
SYMBOL res 368 -704 R0
SYMATTR InstName R11
SYMATTR Value {Rset}
SYMBOL pnp 864 -144 M180
SYMATTR InstName Q8
SYMATTR Value BD140
SYMBOL npn 864 -960 R0
SYMATTR InstName Q7
SYMATTR Value BD139
SYMBOL polcap 1376 -528 R270
WINDOW 0 32 32 VTop 2
WINDOW 3 0 32 VBottom 2
SYMATTR InstName C1
SYMATTR Value 100µ
SYMBOL res 1520 -560 R0
SYMATTR InstName R5
SYMATTR Value 10Meg
TEXT -400 -1328 Left 2 !.inc ECC88.inc\n.inc sihf540.lib\n.inc sihf9540.lib\n.inc irf510.lib\n.inc sihf9510.lib\n.options plotwinsize=0\n.option numdgt=7\n.param Fin = 1k\n.tran 0 {10/Fin} 0 1us\n.four {Fin} V(out)
TEXT 1096 -200 Left 2 !*.step param Rload list 18 32 250\n.param Rload = 18\n*.param Vbias = 31mV\n.step param Vbias 1mV 1000mV 20mV \n.param Iset = 5mA\n*.step param Iset 1mA 5mA 0.2mA\n.param Rset = (273.15+25)*227e-6/Iset\n.param Rbias = Vbias/Iset\n.meas tran Rb param Rbias\n.meas tran Vb param Vbias\n.meas tran Iq min min(I(R1), I(R2))\n.meas tran Iidle find I(R1) when V(out) = 0
