Version 4
SHEET 1 2244 1120
WIRE 592 -1232 592 -1312
WIRE 688 -1152 656 -1152
WIRE 688 -1088 688 -1152
WIRE 592 -976 592 -1072
WIRE 688 -976 688 -1008
WIRE 688 -976 592 -976
WIRE 864 -960 864 -1152
WIRE 592 -912 592 -976
WIRE 800 -912 592 -912
WIRE 592 -880 592 -912
WIRE 592 -752 592 -800
WIRE 528 -704 480 -704
WIRE 864 -672 864 -864
WIRE 592 -624 592 -656
WIRE 480 -544 480 -704
WIRE 480 -544 16 -544
WIRE 864 -544 864 -592
WIRE 1056 -544 864 -544
WIRE 864 -512 864 -544
WIRE 16 -480 16 -544
WIRE 592 -448 592 -480
WIRE 480 -400 480 -544
WIRE 528 -400 480 -400
WIRE 16 -368 16 -400
WIRE 592 -304 592 -352
WIRE 864 -240 864 -432
WIRE 592 -192 592 -224
WIRE 800 -192 592 -192
WIRE 592 -128 592 -192
WIRE 688 -48 656 -48
WIRE 688 16 688 -48
WIRE 864 64 864 -144
WIRE 592 128 592 32
WIRE 688 128 688 96
WIRE 688 128 592 128
WIRE 592 176 592 128
FLAG -336 -880 0
FLAG -336 -960 VEE
IOPIN -336 -960 Out
FLAG -208 -880 0
FLAG -208 -960 VCC
IOPIN -208 -960 Out
FLAG 864 64 VEE
IOPIN 864 64 In
FLAG 864 -1152 VCC
IOPIN 864 -1152 In
FLAG 1056 -544 out
IOPIN 1056 -544 Out
FLAG 1184 -336 out
IOPIN 1184 -336 Out
FLAG 1184 -256 0
FLAG 16 -368 0
FLAG 592 -624 VEE
IOPIN 592 -624 In
FLAG 592 -480 VCC
IOPIN 592 -480 In
FLAG 592 -1312 VCC
IOPIN 592 -1312 In
FLAG 592 176 VEE
IOPIN 592 176 In
SYMBOL voltage -336 -976 R0
SYMATTR InstName V2
SYMATTR Value -10
SYMBOL voltage -208 -976 R0
SYMATTR InstName V3
SYMATTR Value 10
SYMBOL res 1168 -352 R0
SYMATTR InstName R16
SYMATTR Value {Rload}
SYMBOL voltage 16 -496 R0
SYMATTR InstName V5
SYMATTR Value SINE(0 1 {Fin})
SYMATTR Value2 AC 1
SYMBOL res 848 -688 R0
SYMATTR InstName R1
SYMATTR Value 0.22
SYMBOL res 848 -528 R0
SYMATTR InstName R2
SYMATTR Value 0.22
SYMBOL npn 528 -448 R0
SYMATTR InstName Q1
SYMATTR Value BC547C
SYMBOL pnp 528 -656 M180
SYMATTR InstName Q2
SYMATTR Value BC557C
SYMBOL res 576 -320 R0
SYMATTR InstName R3
SYMATTR Value {Rbias}
SYMBOL res 576 -896 R0
SYMATTR InstName R4
SYMATTR Value {Rbias}
SYMBOL Vreg/lm334 592 -1152 R0
SYMATTR InstName U1
SYMBOL res 672 -1104 R0
SYMATTR InstName R11
SYMATTR Value {Rset}
SYMBOL pnp 800 -144 M180
SYMATTR InstName Q8
SYMATTR Value BD140
SYMBOL npn 800 -960 R0
SYMATTR InstName Q7
SYMATTR Value BD139
SYMBOL Vreg/lm334 592 -48 R0
SYMATTR InstName U2
SYMBOL res 672 0 R0
SYMATTR InstName R6
SYMATTR Value {Rset}
TEXT -400 -1328 Left 2 !.inc ECC88.inc\n.inc sihf540.lib\n.inc sihf9540.lib\n.inc irf510.lib\n.inc sihf9510.lib\n.options plotwinsize=0\n.option numdgt=7\n.param Fin = 1k\n.tran 0 {10/Fin} 0 1us\n.four {Fin} V(out)
TEXT 1032 -200 Left 2 !.step param Rload list 18 32 250\n*.param Rload = 18\n.param Iset = 5mA\n*.param Rset = (273.15+25)*227e-6/Iset\n.param Rset = 13.7\n.param Rbias = 36.5\n.meas tran Rb param Rbias\n.meas tran Rs param Rset\n.meas tran Iidle avg I(R1)
