Version 4
SHEET 1 1536 1664
WIRE -944 144 -944 96
WIRE -752 144 -944 144
WIRE -944 176 -944 144
WIRE -752 224 -752 144
WIRE -944 304 -944 256
WIRE -752 352 -752 288
WIRE -752 352 -880 352
WIRE -752 400 -752 352
WIRE -528 400 -528 336
WIRE 0 416 0 384
WIRE 0 416 -128 416
WIRE -128 480 -128 416
WIRE -752 528 -752 480
WIRE -528 576 -528 480
WIRE 0 576 0 416
WIRE -944 624 -944 400
WIRE -944 624 -1008 624
WIRE -688 624 -944 624
WIRE -592 624 -688 624
WIRE -128 624 -128 560
WIRE -64 624 -128 624
WIRE -128 704 -128 624
WIRE -688 752 -688 624
WIRE -656 752 -688 752
WIRE -528 752 -528 672
WIRE -528 752 -592 752
WIRE -416 752 -528 752
WIRE -192 752 -416 752
WIRE -944 784 -944 624
WIRE 0 800 0 672
WIRE 0 800 -128 800
WIRE -1296 832 -1408 832
WIRE -1152 832 -1232 832
WIRE -992 832 -1152 832
WIRE -416 832 -416 752
WIRE -1408 880 -1408 832
WIRE -1152 880 -1152 832
WIRE 0 880 0 800
WIRE -528 944 -528 752
WIRE -976 976 -976 880
WIRE -880 976 -976 976
WIRE -768 976 -800 976
WIRE -1408 992 -1408 960
WIRE -416 992 -416 912
WIRE -416 992 -464 992
WIRE 0 1008 0 960
WIRE 0 1008 -80 1008
WIRE 80 1008 0 1008
WIRE 192 1008 144 1008
WIRE -1152 1024 -1152 960
WIRE -976 1024 -976 976
WIRE 0 1040 0 1008
WIRE -768 1056 -768 976
WIRE -416 1088 -416 992
WIRE -976 1152 -976 1104
WIRE -768 1184 -768 1120
WIRE 0 1200 0 1120
WIRE 0 1200 -112 1200
WIRE -528 1248 -528 1040
WIRE -416 1248 -416 1168
WIRE -416 1248 -528 1248
WIRE -176 1248 -416 1248
WIRE -528 1312 -528 1248
WIRE 0 1344 0 1200
WIRE -112 1392 -112 1296
WIRE -64 1392 -112 1392
WIRE -528 1440 -528 1392
WIRE -112 1472 -112 1392
WIRE -112 1616 -112 1552
WIRE 0 1616 0 1440
WIRE 0 1616 -112 1616
WIRE 0 1648 0 1616
FLAG -736 -64 0
FLAG -736 -144 HT
IOPIN -736 -144 Out
FLAG -1408 992 0
FLAG -944 96 HT
IOPIN -944 96 In
FLAG -976 1152 0
FLAG -752 528 0
FLAG -528 1440 0
FLAG -528 336 HT
IOPIN -528 336 In
FLAG -592 -64 0
FLAG -592 -144 VCC
IOPIN -592 -144 Out
FLAG 0 384 VCC
IOPIN 0 384 In
FLAG 192 1008 out
IOPIN 192 1008 Out
FLAG 320 1216 out
IOPIN 320 1216 Out
FLAG 320 1296 0
FLAG 0 1648 0
FLAG -80 1008 outpp
IOPIN -80 1008 Out
FLAG -768 1184 out
IOPIN -768 1184 In
FLAG -1008 624 va
IOPIN -1008 624 Out
FLAG -1152 1024 0
SYMBOL voltage -736 -160 R0
SYMATTR InstName V1
SYMATTR Value 60
SYMBOL Misc/triode -944 832 R0
SYMATTR InstName U2
SYMATTR Value ECC88
SYMBOL voltage -1408 864 R0
SYMATTR InstName V4
SYMATTR Value SINE(0 0.3 {Fin})
SYMATTR Value2 AC 1
SYMBOL pnp -880 400 R180
SYMATTR InstName Q4
SYMATTR Value BC560C
SYMBOL LED -768 224 R0
SYMATTR InstName D1
SYMATTR Value LedRed_1V7
SYMBOL res -768 384 R0
SYMATTR InstName R2
SYMATTR Value 12k
SYMBOL res -960 160 R0
SYMATTR InstName R3
SYMATTR Value 620
SYMBOL pnp -592 672 M180
SYMATTR InstName Q1
SYMATTR Value BC556B
SYMBOL res -544 384 R0
SYMATTR InstName R5
SYMATTR Value {Rdrv}
SYMBOL res -992 1008 R0
SYMATTR InstName R1
SYMATTR Value 820
SYMBOL voltage -592 -160 R0
SYMATTR InstName V2
SYMATTR Value 30
SYMBOL res 304 1200 R0
SYMATTR InstName R6
SYMATTR Value {Rload}
SYMBOL res -16 864 R0
SYMATTR InstName R7
SYMATTR Value {Re}
SYMBOL res -16 1024 R0
SYMATTR InstName R8
SYMATTR Value {Re}
SYMBOL pnp -64 672 M180
SYMATTR InstName Q5
SYMATTR Value BD140
SYMBOL npn -64 1344 R0
SYMATTR InstName Q6
SYMATTR Value BD139
SYMBOL res -784 960 R90
WINDOW 0 0 56 VBottom 2
WINDOW 3 32 56 VTop 2
SYMATTR InstName R13
SYMATTR Value 4.7k
SYMBOL cap 144 992 R90
WINDOW 0 0 32 VBottom 2
WINDOW 3 32 32 VTop 2
SYMATTR InstName C1
SYMATTR Value 940µ
SYMBOL cap -752 1120 R180
WINDOW 0 24 56 Left 2
WINDOW 3 24 8 Left 2
SYMATTR InstName C2
SYMATTR Value 47µ
SYMBOL pnp -176 1296 M180
SYMATTR InstName Q2
SYMATTR Value BC560C
SYMBOL npn -192 704 R0
SYMATTR InstName Q3
SYMATTR Value BC550C
SYMBOL res -144 464 R0
SYMATTR InstName R4
SYMATTR Value 220
SYMBOL res -128 1456 R0
SYMATTR InstName R12
SYMATTR Value 220
SYMBOL npn -464 944 M0
SYMATTR InstName Q7
SYMATTR Value BC550C
SYMBOL res -432 816 R0
SYMATTR InstName R9
SYMATTR Value 10k
SYMBOL res -432 1072 R0
SYMATTR InstName R10
SYMATTR Value {Rbe}
SYMBOL res -544 1296 R0
SYMATTR InstName R14
SYMATTR Value {Rdrv}
SYMBOL res -1168 864 R0
SYMATTR InstName R11
SYMATTR Value 1Meg
SYMBOL cap -1232 816 R90
WINDOW 0 0 32 VBottom 2
WINDOW 3 32 32 VTop 2
SYMATTR InstName C3
SYMATTR Value 0.47µ
SYMBOL cap -592 736 R90
WINDOW 0 0 32 VBottom 2
WINDOW 3 32 32 VTop 2
SYMATTR InstName C4
SYMATTR Value 10p
TEXT -1216 -240 Left 2 !.inc ECC88.inc\n.inc 12AT7.inc\n.inc 12AY7.inc\n.inc sihf540.lib\n.inc irf510.lib\n.inc opamp.sub\n.options plotwinsize=0\n.option numdgt=7\n*.param Fin = 1k\n.step param Fin list 1k 10k 20k\n.tran 0 100ms 0 1us\n.four {Fin} V(out)\n*.ac dec 100 0.001 100
TEXT 168 1352 Left 2 !*.step param Rload list 18 32 250\n.param Rload = 32\n.meas tran Iq avg I(R7)
TEXT 88 456 Left 2 !.param Vbias = 1.55\n.param Vbe = 0.7\n.param Rbe = Vbe*10k/(Vbias-Vbe)\n.meas tran Rbe_val param Rbe
TEXT 64 856 Left 2 !.param Re = 2.2
TEXT -480 368 Left 2 !.param Rdrv = 2.2k
