Version 4
SHEET 1 1316 1040
WIRE -352 -48 -352 -64
WIRE -352 48 -352 32
WIRE 528 64 528 32
WIRE 128 192 128 144
WIRE 528 240 528 144
WIRE 768 240 528 240
WIRE 528 272 528 240
WIRE 768 288 768 240
WIRE 128 320 128 272
WIRE 288 320 128 320
WIRE 480 320 368 320
WIRE 128 368 128 320
WIRE -192 416 -256 416
WIRE 80 416 -192 416
WIRE -192 464 -192 416
WIRE 496 464 496 368
WIRE 880 464 496 464
WIRE 1024 464 944 464
WIRE 1168 464 1024 464
WIRE 1232 464 1168 464
WIRE 1024 512 1024 464
WIRE 1168 512 1168 464
WIRE 96 560 96 464
WIRE 224 560 96 560
WIRE 224 576 224 560
WIRE -192 592 -192 544
WIRE 496 592 496 464
WIRE 1024 624 1024 592
WIRE 1168 624 1168 592
WIRE 608 640 544 640
WIRE 768 640 768 352
WIRE 768 640 688 640
WIRE 96 656 96 560
WIRE 224 688 224 656
WIRE 224 688 128 688
WIRE 224 736 224 688
WIRE 528 752 528 688
WIRE 96 848 96 720
WIRE 224 848 224 816
WIRE 768 848 768 640
WIRE 528 880 528 832
WIRE 528 880 400 880
WIRE 528 896 528 880
WIRE 400 928 400 880
WIRE 400 1024 400 992
WIRE 528 1024 528 976
WIRE 768 1024 768 928
FLAG -352 48 0
FLAG 768 1024 0
FLAG 528 1024 0
FLAG -192 592 0
FLAG 1232 464 out
IOPIN 1232 464 Out
FLAG 1168 624 0
FLAG 400 1024 0
FLAG 528 32 HT
IOPIN 528 32 In
FLAG -352 -64 HT
IOPIN -352 -64 Out
FLAG 96 848 0
FLAG 128 144 HT
IOPIN 128 144 In
FLAG -256 416 in
IOPIN -256 416 In
FLAG 1024 624 0
FLAG 224 848 0
SYMBOL Misc/triode 528 320 R0
SYMATTR InstName U1
SYMATTR Value 6080
SYMBOL voltage -352 -64 R0
SYMATTR InstName V1
SYMATTR Value {HT}
SYMBOL res 512 48 R0
SYMATTR InstName R1
SYMATTR Value 390
SYMBOL Misc/triode 496 640 M0
SYMATTR InstName U2
SYMATTR Value 6080
SYMBOL res 752 832 R0
SYMATTR InstName R2
SYMATTR Value 1Meg
SYMBOL cap 752 288 R0
SYMATTR InstName C1
SYMATTR Value 0.47µ
SYMBOL res 512 880 R0
SYMATTR InstName R3
SYMATTR Value 750
SYMBOL voltage -192 448 R0
SYMATTR InstName V2
SYMATTR Value SINE(0 1 {Fin})
SYMATTR Value2 AC 1
SYMBOL cap 944 448 R90
WINDOW 0 0 32 VBottom 2
WINDOW 3 32 32 VTop 2
SYMATTR InstName C2
SYMATTR Value 220µ
SYMBOL res 1152 496 R0
SYMATTR InstName R4
SYMATTR Value 250
SYMBOL cap 384 928 R0
SYMATTR InstName C3
SYMATTR Value 1000µ
SYMBOL voltage 528 736 R0
SYMATTR InstName V3
SYMATTR Value 0
SYMBOL Misc/triode 128 416 R0
SYMATTR InstName U3
SYMATTR Value 6SN7
SYMBOL res 112 176 R0
SYMATTR InstName R5
SYMATTR Value 68k
SYMBOL res 704 624 R90
WINDOW 0 0 56 VBottom 2
WINDOW 3 32 56 VTop 2
SYMATTR InstName R7
SYMATTR Value 330
SYMBOL res 1008 496 R0
SYMATTR InstName R8
SYMATTR Value 100k
SYMBOL res 384 304 R90
WINDOW 0 0 56 VBottom 2
WINDOW 3 32 56 VTop 2
SYMATTR InstName R9
SYMATTR Value 330
SYMBOL References_Add/TLV431 96 688 R0
SYMATTR InstName U4
SYMBOL res 208 560 R0
SYMATTR InstName R6
SYMATTR Value 10k
SYMBOL res 208 720 R0
SYMATTR InstName R10
SYMATTR Value 4.53k
TEXT -696 -128 Left 2 !.inc 6080.inc\n.inc 6SN7.inc\n.options plotwinsize=0\n.option numdgt=7\n.param Fin = 1k\n.tran 0 100ms 0 1u\n*.ac dec 100 1 100k\n.param HT = 330\n.four {Fin} V(out)
TEXT 608 88 Left 2 ;Don't change
