Version 4
SHEET 1 4876 1028
WIRE -384 -64 -384 -80
WIRE -384 32 -384 16
WIRE 496 48 496 16
WIRE 240 128 240 80
WIRE -48 176 -48 128
WIRE 496 224 496 128
WIRE 736 224 496 224
WIRE 496 256 496 224
WIRE 736 272 736 224
WIRE -48 304 -48 256
WIRE 64 304 -48 304
WIRE 240 304 240 208
WIRE 240 304 128 304
WIRE 320 304 240 304
WIRE 448 304 400 304
WIRE -48 352 -48 304
WIRE -368 400 -432 400
WIRE -96 400 -368 400
WIRE 240 400 240 304
WIRE -368 448 -368 400
WIRE 464 448 464 352
WIRE 848 448 464 448
WIRE 992 448 912 448
WIRE 1136 448 992 448
WIRE 1200 448 1136 448
WIRE 992 496 992 448
WIRE 1136 496 1136 448
WIRE 240 544 240 480
WIRE -80 560 -80 448
WIRE 64 560 -80 560
WIRE -368 576 -368 528
WIRE 464 576 464 448
WIRE -80 592 -80 560
WIRE 64 608 64 560
WIRE 992 608 992 576
WIRE 1136 608 1136 576
WIRE 576 624 512 624
WIRE 736 624 736 336
WIRE 736 624 656 624
WIRE -80 736 -80 672
WIRE 64 736 64 672
WIRE 496 736 496 672
WIRE 736 832 736 624
WIRE 496 864 496 816
WIRE 496 864 368 864
WIRE 496 880 496 864
WIRE 368 912 368 864
WIRE 368 1008 368 976
WIRE 496 1008 496 960
WIRE 736 1008 736 912
FLAG -384 32 0
FLAG 736 1008 0
FLAG 496 1008 0
FLAG -368 576 0
FLAG 1200 448 out
IOPIN 1200 448 Out
FLAG 1136 608 0
FLAG 368 1008 0
FLAG 496 16 HT
IOPIN 496 16 In
FLAG -384 -80 HT
IOPIN -384 -80 Out
FLAG -80 736 0
FLAG -48 128 HT
IOPIN -48 128 In
FLAG -432 400 in
IOPIN -432 400 In
FLAG 64 736 0
FLAG 992 608 0
FLAG 240 80 HT
IOPIN 240 80 In
FLAG 240 544 0
SYMBOL Misc/triode 496 304 R0
SYMATTR InstName U1
SYMATTR Value 6080
SYMBOL voltage -384 -80 R0
SYMATTR InstName V1
SYMATTR Value {HT}
SYMBOL res 480 32 R0
SYMATTR InstName R1
SYMATTR Value 390
SYMBOL Misc/triode 464 624 M0
SYMATTR InstName U2
SYMATTR Value 6080
SYMBOL res 720 816 R0
SYMATTR InstName R2
SYMATTR Value 1Meg
SYMBOL cap 720 272 R0
SYMATTR InstName C1
SYMATTR Value 0.47µ
SYMBOL res 480 864 R0
SYMATTR InstName R3
SYMATTR Value 550
SYMBOL voltage -368 432 R0
SYMATTR InstName V3
SYMATTR Value SINE(0 1 {Fin})
SYMATTR Value2 AC 1
SYMBOL cap 912 432 R90
WINDOW 0 0 32 VBottom 2
WINDOW 3 32 32 VTop 2
SYMATTR InstName C3
SYMATTR Value 470µ
SYMBOL res 1120 480 R0
SYMATTR InstName R5
SYMATTR Value 250
SYMBOL cap 352 912 R0
SYMATTR InstName C5
SYMATTR Value 1000µ
SYMBOL voltage 496 720 R0
SYMATTR InstName V4
SYMATTR Value 0
SYMBOL Misc/triode -48 400 R0
SYMATTR InstName U4
SYMATTR Value 6SN7
SYMBOL res -64 160 R0
SYMATTR InstName R7
SYMATTR Value 240k
SYMBOL res -96 576 R0
SYMATTR InstName R8
SYMATTR Value 5.6k
SYMBOL cap 48 608 R0
SYMATTR InstName C6
SYMATTR Value 1000µ
SYMBOL res 672 608 R90
WINDOW 0 0 56 VBottom 2
WINDOW 3 32 56 VTop 2
SYMATTR InstName R4
SYMATTR Value 330
SYMBOL res 976 480 R0
SYMATTR InstName R10
SYMATTR Value 100k
SYMBOL cap 128 288 R90
WINDOW 0 0 32 VBottom 2
WINDOW 3 32 32 VTop 2
SYMATTR InstName C2
SYMATTR Value 0.47µ
SYMBOL res 224 112 R0
SYMATTR InstName R11
SYMATTR Value 3.3Meg
SYMBOL res 224 384 R0
SYMATTR InstName R12
SYMATTR Value 1Meg
SYMBOL res 416 288 R90
WINDOW 0 0 56 VBottom 2
WINDOW 3 32 56 VTop 2
SYMATTR InstName R13
SYMATTR Value 330
TEXT -992 -152 Left 2 !.inc 6080.inc\n.inc 6SN7.inc\n.inc 6SL7.inc\n.inc opamp.sub\n.options plotwinsize=0\n.option numdgt=7\n.param Fin = 1k\n.tran 0 10ms 0 1u\n*.ac dec 100 1 100k\n.param HT = 250\n.four {Fin} V(out)
TEXT 576 72 Left 2 ;Don't change
