Version 4
SHEET 1 1732 808
WIRE -112 144 -176 144
WIRE 256 144 -112 144
WIRE 432 160 320 160
WIRE 480 160 432 160
WIRE 608 160 560 160
WIRE 656 160 608 160
WIRE 768 160 720 160
WIRE 912 160 768 160
WIRE 256 176 160 176
WIRE 1040 176 976 176
WIRE 1456 176 1040 176
WIRE 1520 176 1456 176
WIRE 768 192 768 160
WIRE 912 192 864 192
WIRE -1568 208 -2096 208
WIRE -112 208 -112 144
WIRE 608 208 608 160
WIRE -1664 272 -1696 272
WIRE -1568 272 -1568 208
WIRE -1568 272 -1600 272
WIRE -1520 272 -1568 272
WIRE -1424 272 -1456 272
WIRE -2096 288 -2096 208
WIRE 1264 288 1264 272
WIRE 608 304 608 272
WIRE 768 304 768 272
WIRE -1696 320 -1696 272
WIRE -1696 320 -1744 320
WIRE -1424 320 -1424 272
WIRE -1344 320 -1424 320
WIRE -1264 320 -1344 320
WIRE -928 320 -1008 320
WIRE -800 320 -800 272
WIRE -800 320 -928 320
WIRE -672 320 -800 320
WIRE -496 320 -608 320
WIRE -112 336 -112 288
WIRE 160 336 160 176
WIRE 192 336 160 336
WIRE 288 336 272 336
WIRE 320 336 288 336
WIRE 432 336 432 160
WIRE 432 336 400 336
WIRE 864 352 864 192
WIRE 912 352 864 352
WIRE 1040 352 1040 176
WIRE 1040 352 992 352
WIRE -1696 368 -1696 320
WIRE -1664 368 -1696 368
WIRE -1568 368 -1600 368
WIRE -1520 368 -1568 368
WIRE -1424 368 -1424 320
WIRE -1424 368 -1456 368
WIRE -928 384 -928 320
WIRE 1168 384 1120 384
WIRE 1264 384 1264 368
WIRE 1264 384 1232 384
WIRE 160 432 160 336
WIRE 192 432 160 432
WIRE 288 432 288 336
WIRE 288 432 256 432
WIRE -2096 448 -2096 368
WIRE -1568 448 -1568 368
WIRE -1568 448 -2096 448
WIRE -1344 448 -1344 320
WIRE -800 464 -800 320
WIRE 160 464 160 432
WIRE -1136 496 -1136 416
WIRE -928 496 -928 464
WIRE -928 496 -1136 496
WIRE -928 528 -928 496
WIRE 1264 528 1264 384
WIRE 1264 528 1216 528
WIRE -1136 544 -1136 496
WIRE 864 544 864 352
WIRE 944 544 864 544
WIRE 1120 544 1120 384
WIRE 1120 544 1024 544
WIRE 1152 544 1120 544
WIRE 160 560 160 544
WIRE 1264 560 1216 560
WIRE 1296 560 1264 560
WIRE 1456 560 1456 176
WIRE 1456 560 1376 560
WIRE 864 592 864 544
WIRE 1264 608 1264 560
WIRE -1744 656 -1744 320
WIRE -1344 656 -1344 512
WIRE -1344 656 -1744 656
WIRE -1136 656 -1136 608
WIRE -1136 656 -1344 656
WIRE -928 656 -928 608
WIRE -928 656 -1136 656
WIRE -800 656 -800 528
WIRE -800 656 -928 656
WIRE -624 656 -624 352
WIRE -624 656 -800 656
WIRE 160 656 160 624
WIRE -1744 688 -1744 656
WIRE 1264 704 1264 672
WIRE 864 736 864 672
FLAG 288 192 VCC
IOPIN 288 192 In
FLAG -176 144 in
IOPIN -176 144 In
FLAG 944 208 VCC
IOPIN 944 208 In
FLAG 1520 176 out
IOPIN 1520 176 Out
FLAG 1184 576 VEE
IOPIN 1184 576 In
FLAG 1632 288 out
IOPIN 1632 288 Out
FLAG -800 272 VCC
IOPIN -800 272 Out
FLAG -496 320 g
IOPIN -496 320 Out
FLAG -1744 688 0
FLAG -112 336 g
IOPIN -112 336 In
FLAG 160 656 g
IOPIN 160 656 In
FLAG 608 304 g
IOPIN 608 304 In
FLAG 768 304 g
IOPIN 768 304 In
FLAG 864 736 g
IOPIN 864 736 In
FLAG 1264 704 g
IOPIN 1264 704 In
FLAG 1264 272 g
IOPIN 1264 272 In
FLAG 1632 368 g
IOPIN 1632 368 In
FLAG 288 128 0
FLAG 944 144 0
FLAG 1184 512 0
SYMBOL Opamps_Add/NE5532 288 160 M180
SYMATTR InstName U1
SYMBOL res 288 320 R90
WINDOW 0 0 56 VBottom 2
WINDOW 3 32 56 VTop 2
SYMATTR InstName R1
SYMATTR Value 80.6k
SYMBOL res 416 320 R90
WINDOW 0 0 56 VBottom 2
WINDOW 3 32 56 VTop 2
SYMATTR InstName R2
SYMATTR Value 8.45k
SYMBOL res 144 448 R0
SYMATTR InstName R3
SYMATTR Value 499
SYMBOL cap 144 560 R0
SYMATTR InstName C1
SYMATTR Value 200µ
SYMBOL cap 256 416 R90
WINDOW 0 0 32 VBottom 2
WINDOW 3 32 32 VTop 2
SYMATTR InstName C2
SYMATTR Value 39n
SYMBOL res 464 176 R270
WINDOW 0 32 56 VTop 2
WINDOW 3 0 56 VBottom 2
SYMATTR InstName R4
SYMATTR Value 2.37k
SYMBOL cap 592 208 R0
SYMATTR InstName C3
SYMATTR Value 33n
SYMBOL cap 720 144 R90
WINDOW 0 0 32 VBottom 2
WINDOW 3 32 32 VTop 2
SYMATTR InstName C4
SYMATTR Value 2µ
SYMBOL res 752 176 R0
SYMATTR InstName R5
SYMATTR Value 54.9k
SYMBOL Opamps_Add/NE5532 944 176 M180
SYMATTR InstName U2
SYMBOL res 848 576 R0
SYMATTR InstName R6
SYMATTR Value 4.02k
SYMBOL res 1008 336 R90
WINDOW 0 0 56 VBottom 2
WINDOW 3 32 56 VTop 2
SYMATTR InstName R7
SYMATTR Value 4.32k
SYMBOL voltage -112 192 R0
SYMATTR InstName V3
SYMATTR Value SINE(0 2.5mV 1000)
SYMATTR Value2 AC 1
SYMBOL Opamps_Add/NE5532 1184 544 M0
SYMATTR InstName U3
SYMBOL res 1248 272 R0
SYMATTR InstName R8
SYMATTR Value 1Meg
SYMBOL cap 1232 368 R90
WINDOW 0 0 32 VBottom 2
WINDOW 3 32 32 VTop 2
SYMATTR InstName C5
SYMATTR Value 1µ
SYMBOL res 1280 576 R270
WINDOW 0 32 56 VTop 2
WINDOW 3 0 56 VBottom 2
SYMATTR InstName R9
SYMATTR Value 1Meg
SYMBOL res 1040 528 R90
WINDOW 0 0 56 VBottom 2
WINDOW 3 32 56 VTop 2
SYMATTR InstName R10
SYMATTR Value 4.02k
SYMBOL cap 1280 672 R180
WINDOW 0 24 56 Left 2
WINDOW 3 24 8 Left 2
SYMATTR InstName C6
SYMATTR Value 1µ
SYMBOL res 1616 272 R0
SYMATTR InstName R11
SYMATTR Value 10k
SYMBOL voltage -2096 272 R0
SYMATTR InstName V4
SYMATTR Value SINE(0 {12*sqrt(2)} 50)
SYMBOL cap -1360 448 R0
SYMATTR InstName C7
SYMATTR Value 2200µ
SYMBOL diode -1664 288 R270
WINDOW 0 32 32 VTop 2
WINDOW 3 0 32 VBottom 2
SYMATTR InstName D1
SYMATTR Value 1N4002
SYMBOL diode -1520 288 R270
WINDOW 0 32 32 VTop 2
WINDOW 3 0 32 VBottom 2
SYMATTR InstName D2
SYMATTR Value 1N4002
SYMBOL diode -1664 384 R270
WINDOW 0 32 32 VTop 2
WINDOW 3 0 32 VBottom 2
SYMATTR InstName D3
SYMATTR Value 1N4002
SYMBOL diode -1520 384 R270
WINDOW 0 32 32 VTop 2
WINDOW 3 0 32 VBottom 2
SYMATTR InstName D4
SYMATTR Value 1N4002
SYMBOL Vreg/xreg -1136 320 R0
WINDOW 38 -7 -117 Center 2
SYMATTR InstName U4
SYMATTR SpiceModel LM317TI
SYMBOL res -944 368 R0
SYMATTR InstName R12
SYMATTR Value 240
SYMBOL res -944 512 R0
SYMATTR InstName R13
SYMATTR Value 2.05k
SYMBOL cap -816 464 R0
SYMATTR InstName C8
SYMATTR Value 1µ
SYMBOL cap -1152 544 R0
SYMATTR InstName C9
SYMATTR Value 10µ
SYMBOL References_Add/TLE2426 -640 256 R0
SYMATTR InstName U5
TEXT -208 -32 Left 2 !.inc regulators.lib\n.inc lm317-n_trans.lib\n*.ac dec 100 10 30k\n.tran 10s
