Version 4
SHEET 1 1756 1856
WIRE 16 -848 -96 -848
WIRE 208 -848 80 -848
WIRE 336 -848 208 -848
WIRE 448 -848 400 -848
WIRE 528 -848 448 -848
WIRE 208 -800 208 -848
WIRE 448 -800 448 -848
WIRE 448 -704 448 -736
WIRE -96 -688 -96 -848
WIRE 16 -688 -96 -688
WIRE 208 -688 208 -736
WIRE 208 -688 80 -688
WIRE -96 -640 -96 -688
WIRE -96 -528 -96 -576
WIRE 992 -528 -96 -528
WIRE -96 -400 -96 -528
WIRE 848 -352 800 -352
WIRE 992 -352 992 -528
WIRE 992 -352 912 -352
WIRE 1088 -352 992 -352
WIRE 1200 -352 1152 -352
WIRE 1328 -352 1200 -352
WIRE 1408 -352 1328 -352
WIRE 1328 -304 1328 -352
WIRE -96 -240 -96 -320
WIRE -48 -240 -96 -240
WIRE 1328 -224 1328 -240
WIRE 1328 -224 1280 -224
WIRE 1328 -208 1328 -224
WIRE 800 -192 800 -352
WIRE 848 -192 800 -192
WIRE 992 -192 912 -192
WIRE 1088 -192 992 -192
WIRE 1200 -192 1200 -352
WIRE 1200 -192 1152 -192
WIRE -96 -160 -96 -240
WIRE 800 -96 800 -192
WIRE 1328 -96 1328 -144
WIRE 1328 -96 800 -96
WIRE 1408 -96 1328 -96
WIRE -96 48 -96 -80
WIRE 208 48 208 -688
WIRE 208 48 -96 48
WIRE 992 48 992 -192
WIRE 992 48 208 48
WIRE -368 672 -512 672
WIRE -304 672 -368 672
WIRE -32 672 -208 672
WIRE 304 672 224 672
WIRE 416 672 304 672
WIRE 656 672 416 672
WIRE 960 672 896 672
WIRE 1296 672 1216 672
WIRE 1408 672 1296 672
WIRE 1648 672 1408 672
WIRE -368 720 -368 672
WIRE 304 720 304 672
WIRE 1296 720 1296 672
WIRE -368 816 -368 800
WIRE -256 816 -256 736
WIRE -256 816 -368 816
WIRE 656 832 656 672
WIRE 1648 832 1648 672
WIRE 416 848 416 672
WIRE 1408 848 1408 672
WIRE -256 864 -256 816
WIRE 96 880 96 768
WIRE 304 880 304 800
WIRE 304 880 96 880
WIRE 1088 880 1088 768
WIRE 1296 880 1296 800
WIRE 1296 880 1088 880
WIRE -256 960 -256 928
WIRE 96 976 96 880
WIRE 304 976 304 880
WIRE 1088 976 1088 880
WIRE 1296 976 1296 880
WIRE 96 1104 96 1040
WIRE 304 1104 304 1056
WIRE 304 1104 96 1104
WIRE 1088 1104 1088 1040
WIRE 1296 1104 1296 1056
WIRE 1296 1104 1088 1104
WIRE 304 1152 304 1104
WIRE 416 1152 416 912
WIRE 656 1152 656 912
WIRE 1296 1152 1296 1104
WIRE 1408 1152 1408 912
WIRE 1648 1152 1648 912
FLAG 1408 -352 +LV
IOPIN 1408 -352 Out
FLAG 448 -704 0
FLAG 528 -848 +HV
IOPIN 528 -848 Out
FLAG 304 1152 0
FLAG 656 1152 0
FLAG 416 1152 0
FLAG 1296 1152 0
FLAG 1648 1152 0
FLAG 1408 1152 0
FLAG -256 960 0
FLAG 1664 240 0
FLAG 1664 160 +LV
IOPIN 1664 160 Out
FLAG -48 -240 0
FLAG 1280 -224 0
FLAG 1408 -96 -LV
IOPIN 1408 -96 Out
FLAG -512 672 +HV
IOPIN -512 672 In
SYMBOL voltage -96 -416 R0
SYMATTR InstName V1
SYMATTR Value SINE(0 {15*sqrt(2)} 50)
SYMBOL diode 848 -336 R270
WINDOW 0 32 32 VTop 2
WINDOW 3 0 32 VBottom 2
SYMATTR InstName D4
SYMATTR Value 1N4002
SYMBOL diode 1088 -336 R270
WINDOW 0 32 32 VTop 2
WINDOW 3 0 32 VBottom 2
SYMATTR InstName D5
SYMATTR Value 1N4002
SYMBOL diode 848 -176 R270
WINDOW 0 32 32 VTop 2
WINDOW 3 0 32 VBottom 2
SYMATTR InstName D6
SYMATTR Value 1N4002
SYMBOL diode 1088 -176 R270
WINDOW 0 32 32 VTop 2
WINDOW 3 0 32 VBottom 2
SYMATTR InstName D7
SYMATTR Value 1N4002
SYMBOL cap 1312 -304 R0
SYMATTR InstName C2
SYMATTR Value 4700µ
SYMBOL cap -112 -640 R0
SYMATTR InstName C3
SYMATTR Value 220µ
SYMBOL diode 80 -704 R90
WINDOW 0 0 32 VBottom 2
WINDOW 3 32 32 VTop 2
SYMATTR InstName D8
SYMATTR Value 1N4002
SYMBOL diode 336 -832 R270
WINDOW 0 32 32 VTop 2
WINDOW 3 0 32 VBottom 2
SYMATTR InstName D9
SYMATTR Value 1N4002
SYMBOL cap 432 -800 R0
SYMATTR InstName C4
SYMATTR Value 220µ
SYMBOL Vreg/xreg 96 672 R0
SYMATTR InstName U1
SYMATTR SpiceModel LM317TI
SYMBOL res 288 704 R0
SYMATTR InstName R1
SYMATTR Value 510
SYMBOL res 288 960 R0
SYMATTR InstName R2
SYMATTR Value 32.4k
SYMBOL cap 80 976 R0
SYMATTR InstName C5
SYMATTR Value 10µ
SYMBOL res 640 816 R0
SYMATTR InstName R3
SYMATTR Value 2.5k
SYMBOL cap 400 848 R0
SYMATTR InstName C6
SYMATTR Value 10µ
SYMBOL Vreg/xreg 1088 672 R0
SYMATTR InstName U2
SYMATTR SpiceModel LM317TI
SYMBOL res 1280 704 R0
SYMATTR InstName R4
SYMATTR Value 240
SYMBOL res 1280 960 R0
SYMATTR InstName R5
SYMATTR Value 5.49k
SYMBOL cap 1072 976 R0
SYMATTR InstName C7
SYMATTR Value 10µ
SYMBOL res 1632 816 R0
SYMATTR InstName R6
SYMATTR Value 150
SYMBOL cap 1392 848 R0
SYMATTR InstName C8
SYMATTR Value 10µ
SYMBOL npn -304 736 R270
SYMATTR InstName Q1
SYMATTR Value MPSA43
SYMBOL cap -272 864 R0
SYMATTR InstName C1
SYMATTR Value 47µ
SYMBOL res -384 704 R0
SYMATTR InstName R10
SYMATTR Value 2.2k
SYMBOL res 1648 144 R0
SYMATTR InstName R7
SYMATTR Value 487
SYMBOL voltage -96 -176 R0
SYMATTR InstName V2
SYMATTR Value SINE(0 {15*sqrt(2)} 50)
SYMBOL cap 1312 -208 R0
SYMATTR InstName C9
SYMATTR Value 4700µ
SYMBOL cap 192 -800 R0
SYMATTR InstName C10
SYMATTR Value 220µ
SYMBOL diode 16 -832 R270
WINDOW 0 32 32 VTop 2
WINDOW 3 0 32 VBottom 2
SYMATTR InstName D1
SYMATTR Value 1N4002
TEXT -608 -1248 Left 2 !.inc regulators.lib\n.options plotwinsize=0\n.option numdgt=7\n*.tran 0 10s 0 1us\n.tran 10s
