Version 4
SHEET 1 2184 1352
WIRE 784 -288 784 -352
WIRE 784 -288 656 -288
WIRE 896 -288 784 -288
WIRE 656 -240 656 -288
WIRE 896 -240 896 -288
WIRE -32 -192 -32 -272
WIRE -32 -192 -144 -192
WIRE 96 -192 -32 -192
WIRE -144 -144 -144 -192
WIRE 96 -144 96 -192
WIRE 656 -112 656 -160
WIRE 896 -112 896 -160
WIRE 1632 -80 1632 -144
WIRE 1632 -80 1296 -80
WIRE 768 -64 720 -64
WIRE 832 -64 768 -64
WIRE -800 -32 -800 -48
WIRE -608 -32 -608 -48
WIRE 1296 -32 1296 -80
WIRE -144 -16 -144 -64
WIRE 96 -16 96 -64
WIRE 1232 16 1152 16
WIRE 1632 16 1632 -80
WIRE -32 32 -80 32
WIRE 32 32 -32 32
WIRE 768 32 768 -64
WIRE 896 32 896 -16
WIRE 896 32 768 32
WIRE -800 64 -800 48
WIRE -608 64 -608 48
WIRE 1296 96 1296 64
WIRE 1408 96 1296 96
WIRE 1584 96 1488 96
WIRE 896 112 896 32
WIRE 1296 112 1296 96
WIRE -32 128 -32 32
WIRE 96 128 96 80
WIRE 96 128 -32 128
WIRE 656 160 656 -16
WIRE 832 160 656 160
WIRE 656 192 656 160
WIRE -144 240 -144 80
WIRE 560 240 -144 240
WIRE 592 240 560 240
WIRE 1296 240 1296 192
WIRE 1632 240 1632 112
WIRE 1632 240 1296 240
WIRE 1632 320 1632 240
WIRE 560 368 560 240
WIRE 752 368 560 368
WIRE 896 368 896 208
WIRE 896 368 816 368
WIRE 1024 368 896 368
WIRE 1152 368 1152 16
WIRE 1152 368 1024 368
WIRE 1024 400 1024 368
WIRE -144 432 -144 240
WIRE 96 432 96 128
WIRE 1632 464 1632 400
WIRE 1824 464 1632 464
WIRE -208 480 -336 480
WIRE 256 480 160 480
WIRE 320 480 256 480
WIRE 448 480 400 480
WIRE 896 480 896 368
WIRE 656 496 656 288
WIRE 1024 512 1024 480
WIRE 1024 512 928 512
WIRE 1632 528 1632 464
WIRE 256 544 256 480
WIRE -144 576 -144 528
WIRE 96 576 96 528
WIRE 1024 576 1024 512
WIRE -544 608 -544 592
WIRE 1632 672 1632 608
WIRE 1632 672 1552 672
WIRE -144 688 -144 656
WIRE -32 688 -144 688
WIRE 96 688 96 656
WIRE 96 688 -32 688
WIRE 896 688 896 544
WIRE 1024 688 1024 656
WIRE 1024 688 896 688
WIRE 1152 688 1024 688
WIRE -544 704 -544 688
WIRE 1632 704 1632 672
WIRE 256 768 256 624
WIRE 1552 784 1552 672
WIRE 1584 784 1552 784
WIRE 896 816 896 688
WIRE -32 832 -32 688
WIRE 1632 880 1632 800
WIRE 1632 880 1296 880
WIRE 992 896 960 896
WIRE 64 912 32 912
WIRE 992 960 992 896
WIRE 64 976 64 912
WIRE 1296 976 1296 880
WIRE 1632 992 1632 880
WIRE 1152 1024 1152 688
WIRE 1232 1024 1152 1024
WIRE 896 1072 896 976
WIRE 992 1072 992 1040
WIRE 992 1072 896 1072
WIRE 1408 1072 1296 1072
WIRE 1584 1072 1488 1072
WIRE -32 1088 -32 992
WIRE 64 1088 64 1056
WIRE 64 1088 -32 1088
WIRE 1296 1120 1296 1072
WIRE -32 1168 -32 1088
WIRE 1296 1232 1296 1200
WIRE 1632 1232 1632 1088
WIRE 1632 1232 1296 1232
WIRE 896 1264 896 1072
WIRE 1632 1264 1632 1232
FLAG -32 -272 VCC
IOPIN -32 -272 In
FLAG -336 480 in
IOPIN -336 480 In
FLAG -32 1168 VEE
IOPIN -32 1168 In
FLAG -800 64 0
FLAG -800 -48 VCC
IOPIN -800 -48 Out
FLAG -608 64 0
FLAG -608 -48 VEE
IOPIN -608 -48 Out
FLAG -544 704 0
FLAG -544 592 in
IOPIN -544 592 Out
FLAG 896 1264 VEE
IOPIN 896 1264 In
FLAG 784 -352 VCC
IOPIN 784 -352 In
FLAG 1968 528 out
IOPIN 1968 528 Out
FLAG 1968 608 0
FLAG 1824 464 out
IOPIN 1824 464 Out
FLAG 1632 -144 VCC
IOPIN 1632 -144 In
FLAG 1632 1264 VEE
IOPIN 1632 1264 In
FLAG 256 768 0
FLAG 448 480 out
IOPIN 448 480 In
FLAG 656 496 VEE
IOPIN 656 496 In
SYMBOL npn -208 432 R0
SYMATTR InstName Q2
SYMATTR Value BC550C
SYMBOL pnp -80 80 R180
SYMATTR InstName Q3
SYMATTR Value BC560C
SYMBOL pnp 32 80 M180
SYMATTR InstName Q4
SYMATTR Value BC560C
SYMBOL res -160 -160 R0
SYMATTR InstName R1
SYMATTR Value 68
SYMBOL res 80 -160 R0
SYMATTR InstName R2
SYMATTR Value 68
SYMBOL Vreg/lm334 -32 912 R0
SYMATTR InstName U1
SYMBOL res 48 960 R0
SYMATTR InstName R3
SYMATTR Value {Rdif}
SYMBOL voltage -800 -48 R0
SYMATTR InstName V1
SYMATTR Value 15
SYMBOL voltage -608 -48 R0
SYMATTR InstName V2
SYMATTR Value -15
SYMBOL voltage -544 592 R0
SYMATTR InstName V3
SYMATTR Value SINE(0 0.4 1k)
SYMATTR Value2 AC 1
SYMBOL Vreg/lm334 896 896 R0
SYMATTR InstName U2
SYMBOL res 976 944 R0
SYMATTR InstName R5
SYMATTR Value {Rvas}
SYMBOL res 1952 512 R0
SYMATTR InstName R4
SYMATTR Value {Rload}
SYMBOL nmos 1584 16 R0
SYMATTR InstName M1
SYMATTR Value IRF510
SYMATTR Prefix X
SYMBOL nmos 1584 992 R0
SYMATTR InstName M2
SYMATTR Value IRF510
SYMATTR Prefix X
SYMBOL res 1280 1104 R0
SYMATTR InstName R6
SYMATTR Value 510
SYMBOL res 1280 96 R0
SYMATTR InstName R7
SYMATTR Value 510
SYMBOL res 1616 304 R0
SYMATTR InstName R8
SYMATTR Value 0.22
SYMBOL res 1616 512 R0
SYMATTR InstName R9
SYMATTR Value 0.22
SYMBOL nmos 1584 704 R0
SYMATTR InstName M3
SYMATTR Value IRF510
SYMATTR Prefix X
SYMBOL res 1504 80 R90
WINDOW 0 0 56 VBottom 2
WINDOW 3 32 56 VTop 2
SYMATTR InstName R10
SYMATTR Value 100
SYMBOL res 1504 1056 R90
WINDOW 0 0 56 VBottom 2
WINDOW 3 32 56 VTop 2
SYMATTR InstName R11
SYMATTR Value 100
SYMBOL References_Add/TLV431 896 512 R0
SYMATTR InstName U3
SYMBOL res 1008 384 R0
SYMATTR InstName R12
SYMATTR Value 10k
SYMBOL res 1008 560 R0
SYMATTR InstName R13
SYMATTR Value 1.43k
SYMBOL cap 816 352 R90
WINDOW 0 0 32 VBottom 2
WINDOW 3 32 32 VTop 2
SYMATTR InstName C1
SYMATTR Value 100p
SYMBOL res 240 528 R0
SYMATTR InstName R16
SYMATTR Value 2.49k
SYMBOL res 416 464 R90
WINDOW 0 0 56 VBottom 2
WINDOW 3 32 56 VTop 2
SYMATTR InstName R17
SYMATTR Value 10k
SYMBOL npn 160 432 M0
SYMATTR InstName Q1
SYMATTR Value BC550C
SYMBOL pnp 832 208 M180
SYMATTR InstName Q5
SYMATTR Value BC560C
SYMBOL pnp 1232 1072 M180
SYMATTR InstName Q7
SYMATTR Value BC560C
SYMBOL npn 1232 -32 R0
SYMATTR InstName Q6
SYMATTR Value BC550C
SYMBOL res -160 560 R0
SYMATTR InstName R14
SYMATTR Value 56
SYMBOL res 80 560 R0
SYMATTR InstName R15
SYMATTR Value 56
SYMBOL pnp 720 -16 R180
SYMATTR InstName Q8
SYMATTR Value BC560C
SYMBOL pnp 832 -16 M180
SYMATTR InstName Q9
SYMATTR Value BC560C
SYMBOL res 640 -256 R0
SYMATTR InstName R18
SYMATTR Value 33
SYMBOL res 880 -256 R0
SYMATTR InstName R19
SYMATTR Value 33
SYMBOL pnp 592 288 M180
SYMATTR InstName Q10
SYMATTR Value BC560C
TEXT -624 888 Left 2 !.param Idif = 6mA\n.param Ivas = 10mA\n.param Rdif = (273.15+25)*227e-6/Idif\n.param Rvas = (273.15+25)*227e-6/Ivas
TEXT -872 -376 Left 2 !.inc irf510.lib\n.options plotwinsize=0\n.option numdgt=7\n.param Fin = 1k\n.tran 0 {10/Fin} 0 1us\n.four {Fin} V(out)\n*.ac dec 100 10 1Meg
TEXT 1816 664 Left 2 !*.step param Rload list 18 32 250\n.param Rload = 18
