Version 4
SHEET 1 1088 1120
WIRE -2000 -768 -2000 -816
WIRE -2000 -768 -2096 -768
WIRE -1904 -768 -2000 -768
WIRE -2096 -736 -2096 -768
WIRE -1904 -736 -1904 -768
WIRE -2096 -608 -2096 -656
WIRE -1904 -608 -1904 -656
WIRE -2000 -560 -2032 -560
WIRE -1968 -560 -2000 -560
WIRE -2000 -496 -2000 -560
WIRE -1904 -496 -1904 -512
WIRE -1904 -496 -2000 -496
WIRE -1488 -464 -1488 -560
WIRE -1904 -432 -1904 -496
WIRE -2096 -320 -2096 -512
WIRE -1792 -320 -2096 -320
WIRE -1648 -320 -1728 -320
WIRE -1488 -320 -1488 -384
WIRE -1392 -320 -1488 -320
WIRE -1232 -320 -1328 -320
WIRE -1136 -320 -1232 -320
WIRE -976 -320 -1056 -320
WIRE -928 -320 -976 -320
WIRE -816 -320 -864 -320
WIRE -704 -320 -816 -320
WIRE -1232 -288 -1232 -320
WIRE -816 -288 -816 -320
WIRE -976 -272 -976 -320
WIRE -1488 -256 -1488 -320
WIRE -2096 -240 -2096 -320
WIRE -1904 -240 -1904 -352
WIRE -1648 -208 -1648 -320
WIRE -1536 -208 -1648 -208
WIRE -2144 -192 -2368 -192
WIRE -1808 -192 -1856 -192
WIRE -976 -192 -976 -208
WIRE -816 -192 -816 -208
WIRE -1648 -176 -1648 -208
WIRE -2368 -160 -2368 -192
WIRE -2624 -144 -2928 -144
WIRE -2416 -144 -2464 -144
WIRE -1232 -144 -1232 -208
WIRE -1232 -144 -1376 -144
WIRE -2928 -128 -2928 -144
WIRE -1520 -128 -1520 -160
WIRE -2128 -80 -2128 -144
WIRE -2000 -80 -2128 -80
WIRE -1872 -80 -1872 -144
WIRE -1872 -80 -2000 -80
WIRE -1648 -80 -1648 -96
WIRE -1376 -64 -1376 -144
WIRE -1232 -64 -1232 -144
WIRE -2416 -48 -2416 -96
WIRE -2368 -48 -2368 -80
WIRE -2368 -48 -2416 -48
WIRE -2368 -16 -2368 -48
WIRE -2000 -16 -2000 -80
WIRE -1520 0 -1520 -48
WIRE -2000 112 -2000 64
WIRE -1808 112 -1808 -192
WIRE -1376 112 -1376 0
WIRE -1376 112 -1808 112
WIRE -1232 112 -1232 16
WIRE -1232 112 -1376 112
WIRE -1232 208 -1232 112
WIRE -1232 336 -1232 288
FLAG -1888 -976 0
FLAG -1888 -1056 HT
IOPIN -1888 -1056 Out
FLAG -1760 -976 0
FLAG -1760 -1056 VEE
IOPIN -1760 -1056 Out
FLAG -1632 -976 0
FLAG -1632 -1056 VCC
IOPIN -1632 -1056 Out
FLAG -976 -192 0
FLAG -816 -192 0
FLAG -1648 -80 0
FLAG -1520 0 VEE
IOPIN -1520 0 In
FLAG -704 -320 out
IOPIN -704 -320 Out
FLAG -2928 -48 0
FLAG -1488 -560 HT
IOPIN -1488 -560 In
FLAG -2000 -816 HT
IOPIN -2000 -816 In
FLAG -2000 112 VEE
IOPIN -2000 112 In
FLAG -1232 336 0
FLAG -2368 -16 0
SYMBOL voltage -1888 -1072 R0
SYMATTR InstName V1
SYMATTR Value 150
SYMBOL voltage -1760 -1072 R0
SYMATTR InstName V2
SYMATTR Value -10
SYMBOL voltage -1632 -1072 R0
SYMATTR InstName V3
SYMATTR Value 10
SYMBOL res -1248 -192 M180
WINDOW 0 36 76 Left 2
WINDOW 3 36 40 Left 2
SYMATTR InstName R1
SYMATTR Value {R1}
SYMBOL res -1248 32 M180
WINDOW 0 36 76 Left 2
WINDOW 3 36 40 Left 2
SYMATTR InstName R2
SYMATTR Value {R2}
SYMBOL cap -1392 0 M180
WINDOW 0 24 56 Left 2
WINDOW 3 24 8 Left 2
SYMATTR InstName C5
SYMATTR Value {C5}
SYMBOL res -1040 -336 R90
WINDOW 0 0 56 VBottom 2
WINDOW 3 32 56 VTop 2
SYMATTR InstName R3
SYMATTR Value {R3}
SYMBOL cap -992 -272 R0
SYMATTR InstName C3
SYMATTR Value 1n
SYMBOL res -832 -304 R0
SYMATTR InstName R4
SYMATTR Value 3160k
SYMBOL Misc/triode -1488 -208 R0
SYMATTR InstName U1
SYMATTR Value 12AX7
SYMBOL res -1664 -192 R0
SYMATTR InstName R6
SYMATTR Value 1Meg
SYMBOL res -1536 -144 R0
SYMATTR InstName R7
SYMATTR Value 11k
SYMBOL cap -1728 -336 R90
WINDOW 0 0 32 VBottom 2
WINDOW 3 32 32 VTop 2
SYMATTR InstName C1
SYMATTR Value 0.47µ
SYMBOL current -1488 -464 R0
SYMATTR InstName I2
SYMATTR Value 1mA
SYMBOL voltage -2928 -144 R0
WINDOW 3 24 60 Left 2
SYMATTR Value SINE(0 2.5mV {Fin})
SYMATTR Value2 AC 1
SYMATTR InstName V4
SYMBOL cap -864 -336 R90
WINDOW 0 0 32 VBottom 2
WINDOW 3 32 32 VTop 2
SYMATTR InstName C4
SYMATTR Value 0.1µ
SYMBOL res -1248 192 R0
SYMATTR InstName R8
SYMATTR Value {R8}
SYMBOL cap -1328 -336 R90
WINDOW 0 0 32 VBottom 2
WINDOW 3 32 32 VTop 2
SYMATTR InstName C2
SYMATTR Value 1µ
SYMBOL res -1920 -448 R0
SYMATTR InstName R5
SYMATTR Value 11k
SYMBOL pnp -2032 -512 R180
SYMATTR InstName Q1
SYMATTR Value BC556A
SYMBOL pnp -1968 -512 M180
SYMATTR InstName Q2
SYMATTR Value BC556A
SYMBOL res -2112 -752 R0
SYMATTR InstName R9
SYMATTR Value 120
SYMBOL res -1920 -752 R0
SYMATTR InstName R10
SYMATTR Value 120
SYMBOL current -2000 -16 R0
SYMATTR InstName I3
SYMATTR Value 2mA
SYMBOL Misc/triode -2096 -192 R0
SYMATTR InstName U3
SYMATTR Value 12AX7
SYMBOL Misc/triode -1904 -192 M0
SYMATTR InstName U4
SYMATTR Value 12AX7
SYMBOL Misc_Add/RefRIAA -2544 -144 R0
SYMATTR InstName U2
SYMBOL e -2368 -176 R0
SYMATTR InstName E1
SYMATTR Value 27dB
TEXT -2320 -1040 Left 2 !.inc 12AX7.inc\n.options plotwinsize=0\n.option numdgt=7\n.param Fin = 1k\n*.tran 0 {100/Fin} 0 1us\n.ac dec 100 10 20k
TEXT -1048 48 Left 2 !.param s = 0\n*orig .param R3 = 76.8k\n.param R3 = 69.8k\n*.step param R3 60k 80k 0.5k\n.param R1=table(s, 0, 287k, 1, 887k, 2, 2940k)\n.param R2=table(s, 0, 2670k, 1, 8060k, 2, 26700k)\n.param C5=table(s, 0, 1.2n, 1, 0.39n, 2, 0.12n)\n.param R8=table(s, 0, 10.5k, 1, 9.76k, 2, 10k)\n.meas ac gain pp V(out)
