Version 4
SHEET 1 1088 1120
WIRE -2000 -768 -2000 -816
WIRE -2000 -768 -2096 -768
WIRE -1904 -768 -2000 -768
WIRE -2096 -736 -2096 -768
WIRE -1904 -736 -1904 -768
WIRE -2096 -608 -2096 -656
WIRE -1904 -608 -1904 -656
WIRE -1488 -592 -1488 -624
WIRE -720 -592 -848 -592
WIRE -2000 -560 -2032 -560
WIRE -1968 -560 -2000 -560
WIRE -1536 -528 -1568 -528
WIRE -2000 -496 -2000 -560
WIRE -1904 -496 -1904 -512
WIRE -1904 -496 -2000 -496
WIRE -848 -496 -848 -592
WIRE -816 -496 -848 -496
WIRE -720 -480 -720 -592
WIRE -720 -480 -752 -480
WIRE -656 -480 -720 -480
WIRE -1488 -464 -1488 -496
WIRE -1360 -464 -1488 -464
WIRE -1168 -464 -1296 -464
WIRE -1072 -464 -1168 -464
WIRE -912 -464 -992 -464
WIRE -816 -464 -912 -464
WIRE -1904 -432 -1904 -496
WIRE -1488 -432 -1488 -464
WIRE -912 -416 -912 -464
WIRE -912 -336 -912 -352
WIRE -2096 -320 -2096 -512
WIRE -1792 -320 -2096 -320
WIRE -1648 -320 -1728 -320
WIRE -1568 -304 -1568 -528
WIRE -1488 -304 -1488 -352
WIRE -1488 -304 -1568 -304
WIRE -1168 -272 -1168 -464
WIRE -1488 -256 -1488 -304
WIRE -2096 -240 -2096 -320
WIRE -1904 -240 -1904 -352
WIRE -1648 -208 -1648 -320
WIRE -1536 -208 -1648 -208
WIRE -2144 -192 -2368 -192
WIRE -1808 -192 -1856 -192
WIRE -1648 -176 -1648 -208
WIRE -2368 -160 -2368 -192
WIRE -2624 -144 -2928 -144
WIRE -2416 -144 -2464 -144
WIRE -2928 -128 -2928 -144
WIRE -1168 -112 -1168 -192
WIRE -1168 -112 -1312 -112
WIRE -1520 -96 -1520 -160
WIRE -2128 -80 -2128 -144
WIRE -2000 -80 -2128 -80
WIRE -1872 -80 -1872 -144
WIRE -1872 -80 -2000 -80
WIRE -1648 -80 -1648 -96
WIRE -2416 -48 -2416 -96
WIRE -2368 -48 -2368 -80
WIRE -2368 -48 -2416 -48
WIRE -1312 -32 -1312 -112
WIRE -1168 -32 -1168 -112
WIRE -2368 -16 -2368 -48
WIRE -2000 -16 -2000 -80
WIRE -1520 16 -1520 -16
WIRE -2000 112 -2000 64
WIRE -1808 128 -1808 -192
WIRE -1312 128 -1312 32
WIRE -1312 128 -1808 128
WIRE -1168 128 -1168 48
WIRE -1168 128 -1312 128
WIRE -1168 192 -1168 128
WIRE -1168 336 -1168 272
FLAG -1888 -976 0
FLAG -1888 -1056 HT
IOPIN -1888 -1056 Out
FLAG -1760 -976 0
FLAG -1760 -1056 VEE
IOPIN -1760 -1056 Out
FLAG -1632 -976 0
FLAG -1632 -1056 VCC
IOPIN -1632 -1056 Out
FLAG -912 -336 0
FLAG -1648 -80 0
FLAG -1520 16 VEE
IOPIN -1520 16 In
FLAG -656 -480 out
IOPIN -656 -480 Out
FLAG -2928 -48 0
FLAG -2000 -816 HT
IOPIN -2000 -816 In
FLAG -2000 112 VEE
IOPIN -2000 112 In
FLAG -1168 336 0
FLAG -2368 -16 0
FLAG -784 -448 VEE
IOPIN -784 -448 In
FLAG -784 -512 VCC
IOPIN -784 -512 In
FLAG -1488 -624 HT
IOPIN -1488 -624 In
SYMBOL voltage -1888 -1072 R0
SYMATTR InstName V1
SYMATTR Value 160
SYMBOL voltage -1760 -1072 R0
SYMATTR InstName V2
SYMATTR Value -10
SYMBOL voltage -1632 -1072 R0
SYMATTR InstName V3
SYMATTR Value 10
SYMBOL res -1184 -176 M180
WINDOW 0 36 76 Left 2
WINDOW 3 36 40 Left 2
SYMATTR InstName R1
SYMATTR Value {R1}
SYMBOL res -1184 64 M180
WINDOW 0 36 76 Left 2
WINDOW 3 36 40 Left 2
SYMATTR InstName R2
SYMATTR Value {R2}
SYMBOL cap -1328 32 M180
WINDOW 0 24 56 Left 2
WINDOW 3 24 8 Left 2
SYMATTR InstName C5
SYMATTR Value {C5}
SYMBOL res -976 -480 R90
WINDOW 0 0 56 VBottom 2
WINDOW 3 32 56 VTop 2
SYMATTR InstName R3
SYMATTR Value {R3}
SYMBOL cap -928 -416 R0
SYMATTR InstName C3
SYMATTR Value {C3}
SYMBOL Misc/triode -1488 -208 R0
SYMATTR InstName U1
SYMATTR Value 12AX7
SYMBOL res -1664 -192 R0
SYMATTR InstName R6
SYMATTR Value 1Meg
SYMBOL cap -1728 -336 R90
WINDOW 0 0 32 VBottom 2
WINDOW 3 32 32 VTop 2
SYMATTR InstName C1
SYMATTR Value 0.47µ
SYMBOL voltage -2928 -144 R0
WINDOW 3 24 60 Left 2
SYMATTR Value SINE(0 2.5mV {Fin})
SYMATTR Value2 AC 1
SYMATTR InstName V4
SYMBOL res -1184 176 R0
SYMATTR InstName R8
SYMATTR Value {R8}
SYMBOL cap -1296 -480 R90
WINDOW 0 0 32 VBottom 2
WINDOW 3 32 32 VTop 2
SYMATTR InstName C2
SYMATTR Value 10µ
SYMBOL res -1920 -448 R0
SYMATTR InstName R5
SYMATTR Value 11k
SYMBOL pnp -2032 -512 R180
SYMATTR InstName Q1
SYMATTR Value BC556A
SYMBOL pnp -1968 -512 M180
SYMATTR InstName Q2
SYMATTR Value BC556A
SYMBOL res -2112 -752 R0
SYMATTR InstName R9
SYMATTR Value 120
SYMBOL res -1920 -752 R0
SYMATTR InstName R10
SYMATTR Value 120
SYMBOL current -2000 -16 R0
SYMATTR InstName I3
SYMATTR Value 2mA
SYMBOL Misc/triode -2096 -192 R0
SYMATTR InstName U3
SYMATTR Value 12AX7
SYMBOL Misc/triode -1904 -192 M0
SYMATTR InstName U4
SYMATTR Value 12AX7
SYMBOL Misc_Add/RefRIAA -2544 -144 R0
SYMATTR InstName U2
SYMBOL e -2368 -176 R0
SYMATTR InstName E1
SYMATTR Value 27dB
SYMBOL Opamps/opamp2 -784 -544 R0
SYMATTR InstName U5
SYMATTR Value OPA2134
SYMBOL njf -1536 -592 R0
SYMATTR InstName J1
SYMATTR Value 2N5485
SYMBOL res -1504 -448 R0
SYMATTR InstName R11
SYMATTR Value 1.5k
SYMBOL voltage -1520 -112 R0
SYMATTR InstName V5
SYMATTR Value 11
TEXT -2320 -1040 Left 2 !.inc 12AX7.inc\n.inc OPA2134.LIB\n.options plotwinsize=0\n.option numdgt=7\n.param Fin = 1k\n*.tran 0 {100/Fin} 0 1us\n.ac dec 100 10 20k\n*.noise V(out) V4 dec 100 10 30000
TEXT -984 48 Left 2 !.step param s list 0 1 2 3\n* ===================================\n.param C3=table(s, 0, 1n, 1, 2.2n, 2, 5.6n, 3, 0.22n)\n.param R3=table(s, 0, 75k, 1, 34k, 2, 13.3k, 3, 340k)\n.param R1=table(s, 0, 287k, 1, 127k, 2, 49.9k, 3, 1270k)\n.param R2=table(s, 0, 2670k, 1, 1180k, 2, 464k, 3, 11800k)\n.param C5=table(s, 0, 1.2n, 1, 2.7n, 2, 6.8n, 3, 0.27n)\n.param R8=table(s, 0, 10.5k, 1, 4.64k, 2, 1.82k, 3, 46.4k)\n.meas ac gain_avg avg mag(V(out))\n.meas ac gain_dev rms mag(V(out))-gain_avg
