Version 4
SHEET 1 1088 1120
WIRE -2000 -768 -2000 -816
WIRE -2000 -768 -2096 -768
WIRE -1904 -768 -2000 -768
WIRE -2096 -736 -2096 -768
WIRE -1904 -736 -1904 -768
WIRE -2096 -608 -2096 -656
WIRE -1904 -608 -1904 -656
WIRE -1488 -592 -1488 -624
WIRE -2000 -560 -2032 -560
WIRE -1968 -560 -2000 -560
WIRE -1536 -528 -1568 -528
WIRE -2000 -496 -2000 -560
WIRE -1904 -496 -1904 -512
WIRE -1904 -496 -2000 -496
WIRE -1488 -464 -1488 -496
WIRE -1392 -464 -1488 -464
WIRE -1152 -464 -1328 -464
WIRE -1056 -464 -1152 -464
WIRE -896 -464 -976 -464
WIRE -736 -464 -896 -464
WIRE -1904 -432 -1904 -496
WIRE -1488 -432 -1488 -464
WIRE -896 -416 -896 -464
WIRE -896 -336 -896 -352
WIRE -2096 -320 -2096 -512
WIRE -1792 -320 -2096 -320
WIRE -1648 -320 -1728 -320
WIRE -1568 -304 -1568 -528
WIRE -1488 -304 -1488 -352
WIRE -1488 -304 -1568 -304
WIRE -1488 -256 -1488 -304
WIRE -2096 -240 -2096 -320
WIRE -1904 -240 -1904 -352
WIRE -1648 -208 -1648 -320
WIRE -1536 -208 -1648 -208
WIRE -2144 -192 -2512 -192
WIRE -1808 -192 -1856 -192
WIRE -2512 -176 -2512 -192
WIRE -1648 -176 -1648 -208
WIRE -1520 -112 -1520 -160
WIRE -1408 -112 -1520 -112
WIRE -1408 -96 -1408 -112
WIRE -2128 -80 -2128 -144
WIRE -2000 -80 -2128 -80
WIRE -1872 -80 -1872 -144
WIRE -1872 -80 -2000 -80
WIRE -1648 -80 -1648 -96
WIRE -1152 -64 -1152 -464
WIRE -1520 -16 -1520 -112
WIRE -1408 16 -1408 -16
WIRE -1408 16 -1488 16
WIRE -1408 32 -1408 16
WIRE -2000 64 -2000 -80
WIRE -1152 96 -1152 16
WIRE -1152 96 -1296 96
WIRE -1904 144 -1936 144
WIRE -1520 144 -1520 48
WIRE -1408 144 -1408 112
WIRE -1408 144 -1520 144
WIRE -1520 176 -1520 144
WIRE -1296 176 -1296 96
WIRE -1152 176 -1152 96
WIRE -1904 208 -1904 144
WIRE -2000 320 -2000 224
WIRE -1904 320 -1904 288
WIRE -1904 320 -2000 320
WIRE -1808 320 -1808 -192
WIRE -1296 320 -1296 240
WIRE -1296 320 -1808 320
WIRE -1152 320 -1152 256
WIRE -1152 320 -1296 320
WIRE -1152 384 -1152 320
WIRE -2000 400 -2000 320
WIRE -1152 528 -1152 464
FLAG -1888 -976 0
FLAG -1888 -1056 HT
IOPIN -1888 -1056 Out
FLAG -1760 -976 0
FLAG -1760 -1056 VEE
IOPIN -1760 -1056 Out
FLAG -1632 -976 0
FLAG -1632 -1056 VCC
IOPIN -1632 -1056 Out
FLAG -896 -336 0
FLAG -1648 -80 0
FLAG -1520 176 VEE
IOPIN -1520 176 In
FLAG -736 -464 out
IOPIN -736 -464 Out
FLAG -2512 -96 0
FLAG -2000 -816 HT
IOPIN -2000 -816 In
FLAG -1152 528 0
FLAG -1488 -624 HT
IOPIN -1488 -624 In
FLAG -2000 400 VEE
IOPIN -2000 400 In
SYMBOL voltage -1888 -1072 R0
SYMATTR InstName V1
SYMATTR Value 160
SYMBOL voltage -1760 -1072 R0
SYMATTR InstName V2
SYMATTR Value -10
SYMBOL voltage -1632 -1072 R0
SYMATTR InstName V3
SYMATTR Value 10
SYMBOL res -1168 -80 R0
SYMATTR InstName R1
SYMATTR Value {R1}
SYMBOL res -1168 160 R0
SYMATTR InstName R2
SYMATTR Value {R2}
SYMBOL cap -1312 240 M180
WINDOW 0 24 56 Left 2
WINDOW 3 24 8 Left 2
SYMATTR InstName C5
SYMATTR Value {C5}
SYMBOL res -1072 -480 M90
WINDOW 0 0 56 VBottom 2
WINDOW 3 32 56 VTop 2
SYMATTR InstName R3
SYMATTR Value {R3}
SYMBOL cap -912 -416 R0
SYMATTR InstName C3
SYMATTR Value {C3}
SYMBOL Misc/triode -1488 -208 R0
SYMATTR InstName U1
SYMATTR Value 12AX7
SYMBOL res -1664 -192 R0
SYMATTR InstName R6
SYMATTR Value 1Meg
SYMBOL cap -1728 -336 R90
WINDOW 0 0 32 VBottom 2
WINDOW 3 32 32 VTop 2
SYMATTR InstName C1
SYMATTR Value 0.47µ
SYMBOL voltage -2512 -192 R0
WINDOW 3 46 57 Left 2
SYMATTR Value SINE(0 2.5mV {Fin})
SYMATTR Value2 AC 1
SYMATTR InstName V4
SYMBOL res -1168 368 R0
SYMATTR InstName R8
SYMATTR Value {R8}
SYMBOL cap -1392 -448 R270
WINDOW 0 32 32 VTop 2
WINDOW 3 0 32 VBottom 2
SYMATTR InstName C2
SYMATTR Value 0.47µ
SYMBOL res -1920 -448 R0
SYMATTR InstName R5
SYMATTR Value 11k
SYMBOL pnp -2032 -512 R180
SYMATTR InstName Q1
SYMATTR Value BC556A
SYMBOL pnp -1968 -512 M180
SYMATTR InstName Q2
SYMATTR Value BC556A
SYMBOL res -2112 -752 R0
SYMATTR InstName R9
SYMATTR Value 120
SYMBOL res -1920 -752 R0
SYMATTR InstName R10
SYMATTR Value 120
SYMBOL Misc/triode -2096 -192 R0
SYMATTR InstName U3
SYMATTR Value 12AX7
SYMBOL Misc/triode -1904 -192 M0
SYMATTR InstName U4
SYMATTR Value 12AX7
SYMBOL njf -1536 -592 R0
SYMATTR InstName J1
SYMATTR Value 2N4416
SYMBOL res -1504 -448 R0
SYMATTR InstName R11
SYMATTR Value 2k
SYMBOL Vreg/lm334 -2000 144 R0
SYMATTR InstName U2
SYMBOL res -1920 192 R0
SYMATTR InstName R4
SYMATTR Value 34
SYMBOL References_Add/TLV431 -1520 16 R0
SYMATTR InstName U5
SYMBOL res -1424 -112 R0
SYMATTR InstName R7
SYMATTR Value 37.4k
SYMBOL res -1424 16 R0
SYMATTR InstName R12
SYMATTR Value 4.7k
TEXT -2392 -1096 Left 2 !.inc 12AX7.inc\n.inc OPA2134.LIB\n.options plotwinsize=0\n.option numdgt=7\n.param Fin = 1k\n.tran 0 {100/Fin} 0 1us\n.four {Fin} V(out)\n*.ac dec 100 10 20k\n*.noise V(out) V4 dec 100 10 30000
TEXT -968 48 Left 2 !.param C3 = 12n\n.param R3 = 6.19k\n* ===================================\n.param R1 = 127k\n.param R2 = 1180k\n.param C5 = 2.7n\n.param R8 = 4.64k\n.meas ac gain_avg avg mag(V(out))\n.meas ac gain_dev rms mag(V(out))-gain_avg
